Circuit: * Z:\home\ivica\Radio\NE602_Ham_Radio\AGC.asc

Direct Newton iteration for .op point succeeded.

Date: Thu Apr 16 00:40:41 2020
Total elapsed time: 0.118 seconds.

tnom = 27
temp = 27
method = modified trap
totiter = 14146
traniter = 14133
tranpoints = 4290
accept = 2986
rejected = 1304
matrix size = 23
fillins = 8
solver = Normal
Matrix Compiler1: 1.63 KB object code size  0.5/0.4/[0.3]
Matrix Compiler2: off  [0.3]/0.4/0.3

