Circuit: * Z:\home\ivica\Radio\NE602_Ham_Radio\IF_AF_PA.asc

Number of points reduced from 100000 to 65535.
Direct Newton iteration for .op point succeeded.

Date: Tue Apr 14 23:47:56 2020
Total elapsed time: 0.582 seconds.

tnom = 27
temp = 27
method = trap
totiter = 4
traniter = 0
tranpoints = 0
accept = 0
rejected = 0
matrix size = 17
fillins = 0
solver = Normal
Matrix Compiler1:      64 opcodes
Matrix Compiler2: 1.39 KB object code size
