Circuit: * Z:\home\ivica\Radio\NE602_Ham_Radio\NE602 Rx SSB PREAMP.asc

Direct Newton iteration failed to find .op point.  (Use ".option noopiter" to skip.)
Starting Gmin stepping
Gmin = 10
Gmin = 1.07374
vernier = 0.5
vernier = 0.25
vernier = 0.125
vernier = 0.0625
Gmin = 1.08884
vernier = 0.03125
vernier = 0.015625
Gmin = 1.03122
vernier = 0.0078125
vernier = 0.00390625
Gmin = 1.01823
vernier = 0.00520833
vernier = 0.00260417
Gmin = 1.01162
vernier = 0.00347222
vernier = 0.00173611
vernier = 0.000868055
Gmin = 1.00899
vernier = 0.00115741
vernier = 0.000578703
Gmin = 1.0071
vernier = 0.000771604
vernier = 0.000578703
Gmin = 1.00579
vernier = 0.000771604
vernier = 0.000578703
vernier = 0.000434027
Gmin = 1.00499
vernier = 0.000578703
vernier = 0.000434027
Gmin = 0
Gmin stepping failed

Starting source stepping with srcstepmethod=0
Source Step = 3.0303%
Source Step = 33.3333%
Source Step = 63.6364%
Source Step = 93.9394%
Source stepping succeeded in finding the operating point.


Date: Wed Apr 15 00:06:35 2020
Total elapsed time: 14.952 seconds.

tnom = 27
temp = 27
method = modified trap
totiter = 513882
traniter = 507321
tranpoints = 176792
accept = 115350
rejected = 61442
matrix size = 120
fillins = 149
solver = Normal
Thread vector: 15.1/8.6[2] 5.0/3.8[2] 4.2/5.0[1] 0.8/2.0[1]  2592/500
Matrix Compiler1: 15.11 KB object code size  3.7/1.8/[1.2]
Matrix Compiler2: 12.79 KB object code size  2.2/2.8/[1.4]

