Circuit: * Z:\home\ivica\Radio\NE602_Ham_Radio\OUT_RF_PREAMP.asc

Direct Newton iteration for .op point succeeded.

Date: Fri Apr 17 05:08:15 2020
Total elapsed time: 0.178 seconds.

tnom = 27
temp = 27
method = modified trap
totiter = 41947
traniter = 41942
tranpoints = 13175
accept = 9117
rejected = 4058
matrix size = 22
fillins = 28
solver = Normal
Matrix Compiler1: 2.66 KB object code size  0.6/0.4/[0.3]
Matrix Compiler2: off  [0.2]/0.3/0.3

